@<TRIPOS>MOLECULE
FAD
   21    22     1     0     0
SMALL
resp


@<TRIPOS>ATOM
      1 C1          -3.3370     0.5990     0.8330 c3         1 FAD      -0.209156
      2 H1          -4.3540     0.9670     0.6550 hc         1 FAD       0.065506
      3 H2          -2.7280     1.4320     1.1970 hc         1 FAD       0.065506
      4 H3          -3.3800    -0.1700     1.6120 hc         1 FAD       0.065506
      5 C2          -2.7510     0.0390    -0.4630 c3         1 FAD       0.237223
      6 H4          -3.3610    -0.7850    -0.8490 h1         1 FAD       0.014599
      7 H5          -2.7170     0.8160    -1.2320 h1         1 FAD       0.014599
      8 N1          -1.3920    -0.4710    -0.2950 na         1 FAD      -0.326682
      9 C3          -0.9850    -1.7840    -0.1640 cc         1 FAD       0.247576
     10 C4          -0.2440     0.2870    -0.1920 ca         1 FAD       0.557294
     11 H6          -1.7040    -2.5930    -0.2130 h5         1 FAD       0.144858
     12 N2           0.3070    -1.9340     0.0070 nd         1 FAD      -0.591909
     13 C5           0.7900    -0.6370    -0.0060 ca         1 FAD      -0.035958
     14 N3          -0.1260     1.6210    -0.2640 nb         1 FAD      -0.739210
     15 C6           2.0860    -0.0940     0.1140 ca         1 FAD       0.740060
     16 C7           1.1490     2.0000    -0.1410 ca         1 FAD       0.553337
     17 N4           3.1800    -0.8700     0.3330 nv         1 FAD      -0.918458
     18 N5           2.2420     1.2400     0.0370 nb         1 FAD      -0.776960
     19 H7           1.3340     3.0720    -0.1930 h5         1 FAD       0.071175
     20 H8           4.0860    -0.4370     0.2210 hn         1 FAD       0.410547
     21 H9           3.1020    -1.8660     0.1900 hn         1 FAD       0.410547
@<TRIPOS>BOND
     1     1     2 1   
     2     1     3 1   
     3     1     4 1   
     4     1     5 1   
     5     5     6 1   
     6     5     7 1   
     7     5     8 1   
     8     8     9 1   
     9     8    10 1   
    10     9    11 1   
    11     9    12 2   
    12    10    13 ar  
    13    10    14 ar  
    14    12    13 1   
    15    13    15 ar  
    16    14    16 ar  
    17    15    17 1   
    18    15    18 ar  
    19    16    18 ar  
    20    16    19 1   
    21    17    20 1   
    22    17    21 1   
@<TRIPOS>SUBSTRUCTURE
     1 FAD         1 TEMP              0 ****  ****    0 ROOT
