@<TRIPOS>MOLECULE
FNH
    8     7     1     0     0
SMALL
resp


@<TRIPOS>ATOM
      1 C1          -0.8050     0.0000     0.0000 c3         1 FNH     -0.04524
      2 H1          -1.1450     0.9290    -0.4580 hx         1 FNH      0.12277
      3 H2          -1.1450    -0.8610    -0.5760 hx         1 FNH      0.12277
      4 H3          -1.1450    -0.0680     1.0330 hx         1 FNH      0.12277
      5 N1           0.7130    -0.0000     0.0000 nz         1 FNH     -0.30173
      6 H4           1.0910    -0.8570     0.4230 hn         1 FNH      0.32622
      7 H5           1.0910     0.0630    -0.9540 hn         1 FNH      0.32622
      8 H6           1.0910     0.7950     0.5310 hn         1 FNH      0.32622
@<TRIPOS>BOND
     1     1     2 1   
     2     1     3 1   
     3     1     4 1   
     4     1     5 1   
     5     5     6 1   
     6     5     7 1   
     7     5     8 1   
@<TRIPOS>SUBSTRUCTURE
     1 FNH         1 TEMP              0 ****  ****    0 ROOT
