@<TRIPOS>MOLECULE
FNR
   21    21     1     0     0
SMALL
resp


@<TRIPOS>ATOM
      1 C1          -2.9940    -0.6200     0.2320 c3         1 FNR      -0.246815
      2 H1          -3.9340    -0.6510    -0.3310 hc         1 FNR       0.063101
      3 H2          -2.5580    -1.6240     0.2040 hc         1 FNR       0.063101
      4 H3          -3.2420    -0.3840     1.2750 hc         1 FNR       0.063101
      5 C2          -2.0370     0.4150    -0.3690 c3         1 FNR      -0.005874
      6 H4          -2.5180     1.4000    -0.4060 hc         1 FNR       0.047769
      7 H5          -1.7790     0.1400    -1.3960 hc         1 FNR       0.047769
      8 C3          -0.7440     0.5710     0.4260 c5         1 FNR       0.242179
      9 O1           0.0380     1.6630    -0.1190 os         1 FNR      -0.515238
     10 C4           0.1870    -0.6530     0.4450 c5         1 FNR       0.290411
     11 H6          -0.9880     0.8340     1.4680 h1         1 FNR      -0.002637
     12 C5           1.3640     1.2280    -0.3840 c5         1 FNR       0.163474
     13 H7          -0.0130    -1.3020     1.3100 h1         1 FNR       0.001330
     14 C6           1.5710     0.0100     0.5260 c5         1 FNR       0.178653
     15 O2           0.0750    -1.3830    -0.7660 oh         1 FNR      -0.656096
     16 H8           1.4860     0.9210    -1.4340 h1         1 FNR       0.034942
     17 H9           2.0500     2.0570    -0.1730 h1         1 FNR       0.034942
     18 H10          1.7710     0.3330     1.5580 h1         1 FNR       0.022001
     19 O3           2.5510    -0.9260     0.0890 oh         1 FNR      -0.687654
     20 H11          0.9450    -1.7980    -0.9040 ho         1 FNR       0.430889
     21 H12          3.3880    -0.4600    -0.0540 ho         1 FNR       0.430653
@<TRIPOS>BOND
     1     1     2 1   
     2     1     3 1   
     3     1     4 1   
     4     1     5 1   
     5     5     6 1   
     6     5     7 1   
     7     5     8 1   
     8     8     9 1   
     9     8    10 1   
    10     8    11 1   
    11     9    12 1   
    12    10    13 1   
    13    10    14 1   
    14    10    15 1   
    15    12    14 1   
    16    12    16 1   
    17    12    17 1   
    18    14    18 1   
    19    14    19 1   
    20    15    20 1   
    21    19    21 1   
@<TRIPOS>SUBSTRUCTURE
     1 FNR         1 TEMP              0 ****  ****    0 ROOT
