@<TRIPOS>MOLECULE
BNH
    7     6     1     0     0
SMALL
resp


@<TRIPOS>ATOM
      1 C1          -0.7060    -0.0000     0.0180 c3         1 BNH      0.36954
      2 H1          -1.1160     0.8820    -0.4870 h1         1 BNH     -0.03433
      3 H2          -1.0860    -0.0000     1.0550 h1         1 BNH     -0.03433
      4 H3          -1.1160    -0.8820    -0.4870 h1         1 BNH     -0.03433
      5 N1           0.7530    -0.0000    -0.1260 n8         1 BNH     -0.99783
      6 H4           1.1430     0.8120     0.3490 hn         1 BNH      0.36564
      7 H5           1.1430    -0.8120     0.3490 hn         1 BNH      0.36564
@<TRIPOS>BOND
     1     1     2 1   
     2     1     3 1   
     3     1     4 1   
     4     1     5 1   
     5     5     6 1   
     6     5     7 1   
@<TRIPOS>SUBSTRUCTURE
     1 BNH         1 TEMP              0 ****  ****    0 ROOT
