@<TRIPOS>MOLECULE
FNB
   10     9     1     0     0
SMALL
resp


@<TRIPOS>ATOM
      1 C1          -2.1340    0.0000     0.0400 c3         1 FNB      0.19435
      2 H1          -2.1770   -0.7240    -0.7890 h1         1 FNB      0.00616
      3 H2          -2.2140    1.0090    -0.3850 h1         1 FNB      0.00616
      4 H3          -2.9900   -0.1840     0.7050 h1         1 FNB      0.00616
      5 O1          -0.9540   -0.1480     0.7990 os         1 FNB     -0.55348
      6 P1           0.4860    0.2630     0.0300 p5         1 FNB      1.27938
      7 O2           1.5570    0.0750     1.0650 o          1 FNB     -0.80853
      8 O3           0.2560    1.5030    -0.7800 o          1 FNB     -0.80853
      9 O4           0.6110   -1.0280    -1.0430 oh         1 FNB     -0.71006
     10 H4           1.1480   -1.6730    -0.5570 ho         1 FNB      0.38839
@<TRIPOS>BOND
     1     1     2 1   
     2     1     3 1   
     3     1     4 1   
     4     1     5 1   
     5     5     6 1   
     6     6     7 1   
     7     6     8 1   
     8     6     9 1   
     9     9    10 1   
@<TRIPOS>SUBSTRUCTURE
     1 FNB         1 TEMP              0 ****  ****    0 ROOT
