@<TRIPOS>MOLECULE
FOH
    6     5     1     0     0
SMALL
resp


@<TRIPOS>ATOM
      1 C1           0.6620     0.0000     0.0000 c3         1 FOH      0.22529
      2 H1           1.0800     1.0110    -0.0000 h1         1 FOH      0.00826
      3 H2           1.0370    -0.5240    -0.8930 h1         1 FOH      0.00826
      4 H3           1.0370    -0.5240     0.8930 h1         1 FOH      0.00826
      5 O1          -0.7490     0.1420     0.0000 oh         1 FOH     -0.66792
      6 H4          -1.1340    -0.7460     0.0000 ho         1 FOH      0.41785
@<TRIPOS>BOND
     1     1     2 1   
     2     1     3 1   
     3     1     4 1   
     4     1     5 1   
     5     5     6 1   
@<TRIPOS>SUBSTRUCTURE
     1 FOH         1 TEMP              0 ****  ****    0 ROOT
