@<TRIPOS>MOLECULE
FGU
   22    23     1     0     0
SMALL
resp


@<TRIPOS>ATOM
      1 C1          -3.2630     1.1410     0.8470 c3         1 FGU      -0.161375
      2 H1          -4.1280     1.7890     0.6710 hc         1 FGU       0.055003
      3 H2          -2.4670     1.7430     1.2950 hc         1 FGU       0.055003
      4 H3          -3.5540     0.3630     1.5600 hc         1 FGU       0.055003
      5 C2          -2.7900     0.5290    -0.4730 c3         1 FGU       0.095107
      6 H4          -3.5860    -0.0600    -0.9390 h1         1 FGU       0.053081
      7 H5          -2.5010     1.3150    -1.1770 h1         1 FGU       0.053081
      8 N1          -1.6400    -0.3560    -0.3070 na         1 FGU      -0.199619
      9 C3          -1.6380    -1.7370    -0.1970 cc         1 FGU       0.172563
     10 C4          -0.3280     0.0280    -0.1760 cc         1 FGU       0.382535
     11 H6          -2.5600    -2.3000    -0.2690 h5         1 FGU       0.152913
     12 N2          -0.4470    -2.2480    -0.0160 nd         1 FGU      -0.547729
     13 C5           0.3930    -1.1530     0.0020 cd         1 FGU       0.010443
     14 N3           0.1220     1.3120    -0.2100 nc         1 FGU      -0.696342
     15 C6           1.8240    -1.0780     0.1490 c          1 FGU       0.722798
     16 C7           1.4250     1.3910    -0.0820 cd         1 FGU       0.908875
     17 O1           2.6670    -1.9450     0.2970 o          1 FGU      -0.582907
     18 N4           2.2380     0.3010     0.0880 ns         1 FGU      -0.826676
     19 N5           2.0450     2.6220    -0.1730 nv         1 FGU      -0.944964
     20 H7           3.2450     0.4180     0.1100 hn         1 FGU       0.436397
     21 H8           2.8640     2.7650     0.4050 hn         1 FGU       0.403405
     22 H9           1.3860     3.3890    -0.1320 hn         1 FGU       0.403405
@<TRIPOS>BOND
     1     1     2 1   
     2     1     3 1   
     3     1     4 1   
     4     1     5 1   
     5     5     6 1   
     6     5     7 1   
     7     5     8 1   
     8     8     9 1   
     9     8    10 1   
    10     9    11 1   
    11     9    12 2   
    12    10    13 2   
    13    10    14 1   
    14    12    13 1   
    15    13    15 1   
    16    14    16 2   
    17    15    17 2   
    18    15    18 1   
    19    16    18 1   
    20    16    19 1   
    21    18    20 1   
    22    19    21 1   
    23    19    22 1   
@<TRIPOS>SUBSTRUCTURE
     1 FGU         1 TEMP              0 ****  ****    0 ROOT
