@<TRIPOS>MOLECULE
FUR
   18    18     1     0     0
SMALL
resp


@<TRIPOS>ATOM
      1 C1          -2.9570    -0.3840     0.8240 c3         1 FUR      -0.168856
      2 H1          -4.0330    -0.4620     0.6360 hc         1 FUR       0.056804
      3 H2          -2.7700     0.5510     1.3610 hc         1 FUR       0.056804
      4 H3          -2.6600    -1.2230     1.4630 hc         1 FUR       0.056804
      5 C2          -2.1950    -0.3950    -0.5010 c3         1 FUR       0.149445
      6 H4          -2.3900    -1.3140    -1.0620 h1         1 FUR       0.032354
      7 H5          -2.4950     0.4530    -1.1190 h1         1 FUR       0.032354
      8 N1          -0.7360    -0.3000    -0.3210 n          1 FUR      -0.308442
      9 C3           0.0520    -1.4270    -0.2570 cc         1 FUR       0.122167
     10 C4          -0.1880     0.9780    -0.1530 c          1 FUR       0.853465
     11 H6          -0.4840    -2.3610    -0.3910 h4         1 FUR       0.180004
     12 C5           1.3880    -1.3940    -0.0530 cd         1 FUR      -0.621034
     13 N2           1.1810     0.9810     0.0450 ns         1 FUR      -0.759366
     14 O1          -0.8630     1.9950    -0.1820 o          1 FUR      -0.610004
     15 H7           1.9790    -2.2990    -0.0170 ha         1 FUR       0.226928
     16 C6           2.0650    -0.1180     0.1200 c          1 FUR       0.942936
     17 H8           1.5960     1.8980     0.1640 hn         1 FUR       0.385628
     18 O2           3.2580     0.0580     0.3100 o          1 FUR      -0.627992
@<TRIPOS>BOND
     1     1     2 1   
     2     1     3 1   
     3     1     4 1   
     4     1     5 1   
     5     5     6 1   
     6     5     7 1   
     7     5     8 1   
     8     8     9 1   
     9     8    10 1   
    10     9    11 1   
    11     9    12 2   
    12    10    13 1   
    13    10    14 2   
    14    12    15 1   
    15    12    16 1   
    16    13    16 1   
    17    13    17 1   
    18    16    18 2   
@<TRIPOS>SUBSTRUCTURE
     1 FUR         1 TEMP              0 ****  ****    0 ROOT
