@<TRIPOS>MOLECULE
FCY
   19    19     1     0     0
SMALL
resp


@<TRIPOS>ATOM
      1 C1          -2.9790    0.0000    0.8320 c3         1 FCY      -0.235101
      2 H1          -4.0570   -0.0660    0.6450 hc         1 FCY       0.071466
      3 H2          -2.7660    0.9670    1.2940 hc         1 FCY       0.071466
      4 H3          -2.7020   -0.7980    1.5310 hc         1 FCY       0.071466
      5 C2          -2.2130   -0.1250   -0.4850 c3         1 FCY       0.155556
      6 H4          -2.4220   -1.0830   -0.9740 h1         1 FCY       0.033744
      7 H5          -2.5000    0.6810   -1.1630 h1         1 FCY       0.033744
      8 N1          -0.7570   -0.0320   -0.3060 n          1 FCY      -0.390627
      9 C3           0.0190   -1.1410   -0.2380 cc         1 FCY       0.241610
     10 C4          -0.1860    1.2830   -0.1590 c          1 FCY       0.986588
     11 H6          -0.4930   -2.0920   -0.3530 h4         1 FCY       0.162890
     12 C5           1.3640   -1.0590   -0.0450 cd         1 FCY      -0.795877
     13 N2           1.1680    1.3580    0.0320 nc         1 FCY      -0.902073
     14 O1          -0.9370    2.2480   -0.2070 o          1 FCY      -0.644481
     15 H7           1.9850   -1.9470   -0.0120 ha         1 FCY       0.254106
     16 C6           1.9020    0.2640    0.0840 cd         1 FCY       1.055800
     17 N3           3.2520    0.4290    0.2320 nv         1 FCY      -1.014830
     18 H8           3.5550    1.3600    0.4830 hn         1 FCY       0.422277
     19 H9           3.8130   -0.3400    0.5670 hn         1 FCY       0.422277
@<TRIPOS>BOND
     1     1     2 1   
     2     1     3 1   
     3     1     4 1   
     4     1     5 1   
     5     5     6 1   
     6     5     7 1   
     7     5     8 1   
     8     8     9 1   
     9     8    10 1   
    10     9    11 1   
    11     9    12 2   
    12    10    13 1   
    13    10    14 2   
    14    12    15 1   
    15    12    16 1   
    16    13    16 2   
    17    16    17 1   
    18    17    18 1   
    19    17    19 1   
@<TRIPOS>SUBSTRUCTURE
     1 FCY         1 TEMP              0 ****  ****    0 ROOT
