@<TRIPOS>MOLECULE
FCH
    8     7     1     0     0
SMALL
resp


@<TRIPOS>ATOM
      1 C1           0.0000     0.0000     0.7650 c3         1 FCH      -0.0321
      2 H1          -0.5100     0.8840     1.1640 hc         1 FCH       0.0107
      3 H2           1.0210    -0.0000     1.1640 hc         1 FCH       0.0107
      4 H3          -0.5110    -0.8840     1.1640 hc         1 FCH       0.0107
      5 C2           0.0000     0.0000    -0.7650 c3         1 FCH      -0.0321
      6 H4           0.5110    -0.8840    -1.1640 hc         1 FCH       0.0107
      7 H5          -1.0210    -0.0000    -1.1640 hc         1 FCH       0.0107
      8 H6           0.5100     0.8840    -1.1640 hc         1 FCH       0.0107
@<TRIPOS>BOND
     1     1     2 1   
     2     1     3 1   
     3     1     4 1   
     4     1     5 1   
     5     5     6 1   
     6     5     7 1   
     7     5     8 1   
@<TRIPOS>SUBSTRUCTURE
     1 FCH         1 TEMP              0 ****  ****    0 ROOT
