@<TRIPOS>MOLECULE
BCO
    7     6     1     0     0
SMALL
resp


@<TRIPOS>ATOM
      1 C1           1.1730    0.0000    -0.0000 c3         1 BCO     -0.38339
      2 H1           1.9220    0.7970    -0.0010 hc         1 BCO      0.11505
      3 H2           1.3180   -0.6350    -0.8820 hc         1 BCO      0.11505
      4 H3           1.3190   -0.6350     0.8820 hc         1 BCO      0.11505
      5 C2          -0.2400    0.5480     0.0000 c          1 BCO      0.58460
      6 H4          -0.3340    1.6580    -0.0010 h4         1 BCO     -0.02109
      7 O1          -1.2280   -0.1510    -0.0000 o          1 BCO     -0.52527
@<TRIPOS>BOND
     1     1     2 1   
     2     1     3 1   
     3     1     4 1   
     4     1     5 1   
     5     5     6 1   
     6     5     7 2   
@<TRIPOS>SUBSTRUCTURE
     1 BCO         1 TEMP              0 ****  ****    0 ROOT
