@<TRIPOS>MOLECULE
FCO
    7     6     1     0     0
SMALL
resp


@<TRIPOS>ATOM
      1 C1           1.3550    -0.0000    -0.0040 c3         1 FCO     -0.33309
      2 H1           1.7600     0.8970    -0.4910 hc         1 FCO      0.03723
      3 H2           1.7590    -0.9000    -0.4880 hc         1 FCO      0.03723
      4 H3           1.7160     0.0020     1.0360 hc         1 FCO      0.03723
      5 C2          -0.2200     0.0000    -0.0140 c          1 FCO      0.90864
      6 O1          -0.7530     1.1390     0.0030 o          1 FCO     -0.84362
      7 O2          -0.7530    -1.1380     0.0030 o          1 FCO     -0.84362
@<TRIPOS>BOND
     1     1     2 1   
     2     1     3 1   
     3     1     4 1   
     4     1     5 1   
     5     5     6 1   
     6     5     7 1   
@<TRIPOS>SUBSTRUCTURE
     1 FCO         1 TEMP              0 ****  ****    0 ROOT
